
     RDKit          2D

 31 35  0  0  0  0  0  0  0  0999 V2000
  -20.7636  -11.0573    4.6631 C   0  0  0  0  0  0  0  0  0  0  0  0
  -21.1602   -9.6936    5.2192 C   0  0  0  0  0  0  0  0  0  0  0  0
  -21.7263   -8.7011    4.2021 C   0  0  0  0  0  0  0  0  0  0  0  0
  -20.8573   -8.0941    3.1426 C   0  0  0  0  0  0  0  0  0  0  0  0
  -21.4044   -7.4682    1.9487 C   0  0  0  0  0  0  0  0  0  0  0  0
  -22.8507   -7.1571    1.9509 C   0  0  0  0  0  0  0  0  0  0  0  0
  -23.7908   -7.8812    2.8732 C   0  0  0  0  0  0  0  0  0  0  0  0
  -25.1535   -8.2748    2.3547 Cl  0  0  0  0  0  0  0  0  0  0  0  0
  -23.1916   -8.5810    4.1040 C   0  0  0  0  0  0  0  0  0  0  0  0
  -20.5240   -9.2028    6.4839 N   0  0  0  0  0  0  0  0  0  0  0  0
  -19.6870  -10.2159    7.2519 C   0  0  0  0  0  0  0  0  0  0  0  0
  -18.8123  -11.1379    6.3776 C   0  0  0  0  0  0  0  0  0  0  0  0
  -19.4576  -11.7190    5.1744 C   0  0  0  0  0  0  0  0  0  0  0  0
  -19.0111  -12.6394    4.1196 C   0  0  0  0  0  0  0  0  0  0  0  0
  -19.8601  -12.3388    2.8394 C   0  0  0  0  0  0  0  0  0  0  0  0
  -19.5216  -13.0567    1.5466 C   0  0  0  0  0  0  0  0  0  0  0  0
  -18.4486  -14.1799    1.6048 C   0  0  0  0  0  0  0  0  0  0  0  0
  -17.8559  -14.6264    2.9052 C   0  0  0  0  0  0  0  0  0  0  0  0
  -18.1385  -13.8638    4.1643 C   0  0  0  0  0  0  0  0  0  0  0  0
  -21.1066  -11.7107    3.3654 N   0  0  0  0  0  0  0  0  0  0  0  0
  -20.5509  -10.9527    8.2420 C   0  0  0  0  0  0  0  0  0  0  0  0
  -21.7749  -11.7282    7.7994 O   0  0  0  0  0  0  0  0  0  0  0  0
  -19.9150  -11.4704    9.5355 N   0  0  0  0  0  0  0  0  0  0  0  0
  -18.9630  -12.5683    9.6326 C   0  0  0  0  0  0  0  0  0  0  0  0
  -18.2111  -12.2436   11.2832 C   0  0  0  0  0  0  0  0  0  0  0  0
  -17.2873  -11.0380   10.8330 C   0  0  0  0  0  0  0  0  0  0  0  0
  -18.0254  -10.0069   10.0249 C   0  0  0  0  0  0  0  0  0  0  0  0
  -19.5386  -10.0466    9.9367 C   0  0  0  0  0  0  0  0  0  0  0  0
  -20.2221  -10.6644   11.1720 C   0  0  0  0  0  0  0  0  0  0  0  0
  -19.5301  -11.6827   12.0069 C   0  0  0  0  0  0  0  0  0  0  0  0
  -20.2225  -10.4007    8.5939 C   0  0  0  0  0  0  0  0  0  0  0  0
  1  2  1  0
  2  3  1  0
  3  4  2  0
  4  5  1  0
  5  6  2  0
  6  7  1  0
  7  8  1  0
  7  9  2  0
  2 10  2  0
 10 11  1  0
 11 12  2  0
 12 13  1  0
 13 14  1  0
 14 15  2  0
 15 16  1  0
 16 17  2  0
 17 18  1  0
 18 19  2  0
 15 20  1  0
 11 21  1  0
 21 22  2  0
 21 23  1  0
 23 24  1  0
 24 25  1  0
 25 26  2  0
 26 27  1  0
 27 28  2  0
 28 29  1  0
 29 30  2  0
 28 31  1  0
 13  1  2  0
 19 14  1  0
 30 25  1  0
 20  1  1  0
  9  3  1  0
M  END
$$$$
